models/2gen_psse/2gen_noRE_v32.raw
0,   100.00,  32, 0, 1, 50.00     / PSS(R)E 32 RAW created by rawd32  MON, NOV 15 2021  23:12
NINE BUS SYSTEM-FIVE-CYCLES FAULT MAG-A-STAT/PSS
POWERFACTORY 14.0.524  DATE: 2/13/2013, TIME: 9:21:33 AM
     1,'BUS 1       ',  24.0000,3,   1,   1,   1,1.04000,   0.0000
     2,'BUS 2       ', 230.0000,1,   1,   1,   1,1.00637,  -2.6841
     3,'BUS 3       ', 230.0000,1,   1,   1,   1,1.00222,  -1.6783
     4,'BUS 4       ',  24.0000,2,   1,   1,   1,1.02000,   2.5291
 0 /End of Bus data, Begin Load data
     2,'1 ',1,   1,   1,   105.048,    58.236,     0.000,     0.000,     0.000,     0.000,   1,0
     3,'1 ',1,   1,   1,   100.000,    40.000,     0.000,     0.000,     0.000,     0.000,   1,0
 0 /End of Load data, Begin Fixed shunt data
 0 /End of Fixed shunt data, Begin Generator data
     1,'1 ',    85.093,    62.715,   247.500,  -247.500,1.04000,     0,   555.000, 5.00000E-3, 2.00000E-1, 0.00000E+0, 0.00000E+0,1.00000,1,  100.0,   247.500,     0.000,   1,1.0000
     4,'1 ',   120.000,    33.422,   192.000,  -192.000,1.02000,     0,   555.000, 5.00000E-3, 2.00000E-1, 0.00000E+0, 0.00000E+0,1.00000,1,  100.0,   163.200,     0.000,   1,1.0000
 0 /End of Generator data, Begin Branch data
     2,      3,'1 ', 1.00000E-2, 8.50000E-2,   0.17600,  398.37,  398.37,  398.37,  0.00000,  0.00000,  0.00000,  0.00000,1,2,   1.00,   1,1.0000
 0 /End of Branch data, Begin Transformer data
     2,     1,     0,'1 ',1,1,1, 0.00000E+0, 0.00000E+0,2,'T1          ',1,   1,1.0000
 0.00000E+0, 5.76000E-2,   100.00
1.00000,   0.000,   0.000,     0.00,     0.00,     0.00, 0,      0, 1.10000, 0.90000, 1.10000, 0.90000,   2, 0, 0.00000, 0.00000,  0.000
1.00000,   0.000
     3,     4,     0,'1 ',1,1,1, 0.00000E+0, 0.00000E+0,2,'T2          ',1,   1,1.0000
 0.00000E+0, 6.25000E-2,   100.00
1.00000,   0.000,   0.000,     0.00,     0.00,     0.00, 0,      0, 1.10000, 0.90000, 1.10000, 0.90000,   2, 0, 0.00000, 0.00000,  0.000
1.00000,   0.000
 0 /End of Transformer data, Begin Area interchange data
 0 /End of Area interchange data, Begin Two-terminal dc line data
 0 /End of Two-terminal dc line data, Begin VSC dc line data
 0 /End of VSC dc line data, Begin Impedance correction table data
 0 /End of Impedance correction table data, Begin Multi-terminal dc line data
 0 /End of Multi-terminal dc line data, Begin Multi-section line data
 0 /End of Multi-section line data, Begin Zone data
 0 /End of Zone data, Begin Inter-area transfer data
 0 /End of Inter-area transfer data, Begin Owner data
 0 /End of Owner data, Begin FACTS device data
 0 /End of FACTS device data, Begin Switched shunt data
 0 /End of Switched shunt data, Begin GNE device data
 0 /End of GNE device data
Q
